ROMS/TOMS Framework: May 5, 2011
===================

Copyright (c) 2002-2011 The ROMS/TOMS Group
  Licensed under a MIT/X style license
  See License_ROMS.txt

svn: $HeadURL: https://www.myroms.org/svn/omlab/branches/kate/trunk/ROMS/Version $
svn: $LastChangedBy: kate $
svn: $LastChangedRevision: 1415 $
svn: $LastChangedDate: 2011-05-10 21:42:49 +0200 (Tue, 10 May 2011) $
