# svn $Id: Module.mk 1368 2011-01-21 00:34:18Z kate $
#::::::::::::::::::::::::::::::::::::::::::::::::::::: Hernan G. Arango :::
# Copyright (c) 2002-2011 The ROMS/TOMS Group             Kate Hedstrom :::
#   Licensed under a MIT/X style license                                :::
#   See License_ROMS.txt                                                :::
#::::::::::::::::::::::::::::::::::::::::::::::::::::::::::::::::::::::::::

local_sub  := ROMS/Programs

local_src  := $(wildcard $(local_sub)/*.F)
path_srcs  += $(local_src)
